
**** 10/17/19 01:52:47 ****** PSpice Lite (October 2012) ****** ID# 10813 ****

 ** Profile: "SCHEMATIC1-Pmos"  [ E:\VLSI DESIGN LAB 1\PMOS\PMOS-PSpiceFiles\SCHEMATIC1\Pmos.sim ] 


 ****     CIRCUIT DESCRIPTION


******************************************************************************




** Creating circuit file "Pmos.cir" 
** WARNING: THIS AUTOMATICALLY GENERATED FILE MAY BE OVERWRITTEN BY SUBSEQUENT SIMULATIONS

*Libraries: 
* Profile Libraries :
* Local Libraries :
* From [PSPICE NETLIST] section of C:\SPB_Data\cdssetup\OrCAD_PSpice/16.6.0/PSpice.ini file:
.lib "nomd.lib" 

*Analysis directives: 
.DC LIN V_V1 0 -15 .5 
+ LIN V_V2 0 -5 1 
.OPTIONS ADVCONV
.PROBE64 V(alias(*)) I(alias(*)) W(alias(*)) D(alias(*)) NOISE(alias(*)) 
.INC "..\SCHEMATIC1.net" 



**** INCLUDING SCHEMATIC1.net ****
* source PMOS
M_M1         N00103 N00110 N00117 N00117 MbreakP           
V_V1         N00103 0 0Vdc
V_V2         N00110 0 0Vdc
V_V3         N00117 0 0Vdc

**** RESUMING Pmos.cir ****
.END

**** 10/17/19 01:52:47 ****** PSpice Lite (October 2012) ****** ID# 10813 ****

 ** Profile: "SCHEMATIC1-Pmos"  [ E:\VLSI DESIGN LAB 1\PMOS\PMOS-PSpiceFiles\SCHEMATIC1\Pmos.sim ] 


 ****     MOSFET MODEL PARAMETERS


******************************************************************************




               MbreakP         
               PMOS            
       LEVEL    1            
           L  100.000000E-06 
           W  100.000000E-06 
         VTO    0            
          KP   20.000000E-06 
       GAMMA    0            
         PHI     .6          
      LAMBDA    0            
          IS   10.000000E-15 
          JS    0            
          PB     .8          
        PBSW     .8          
          CJ    0            
        CJSW    0            
        CGSO    0            
        CGDO    0            
        CGBO    0            
         TOX    0            
          XJ    0            
       UCRIT   10.000000E+03 
      DIOMOD    1            
         VFB    0            
        LETA    0            
        WETA    0            
          U0    0            
        TEMP    0            
         VDD    5            
       XPART    0            



          JOB CONCLUDED

**** 10/17/19 01:52:47 ****** PSpice Lite (October 2012) ****** ID# 10813 ****

 ** Profile: "SCHEMATIC1-Pmos"  [ E:\VLSI DESIGN LAB 1\PMOS\PMOS-PSpiceFiles\SCHEMATIC1\Pmos.sim ] 


 ****     JOB STATISTICS SUMMARY


******************************************************************************



  Total job time (using Solver 1)   =         .06
