
**** 11/19/19 23:08:30 ****** PSpice Lite (October 2012) ****** ID# 10813 ****

 ** Profile: "SCHEMATIC1-nor gate"  [ F:\MAFI\NOR Gate Using CMOS type 2-PSpiceFiles\SCHEMATIC1\nor gate.sim ] 


 ****     CIRCUIT DESCRIPTION


******************************************************************************




** Creating circuit file "nor gate.cir" 
** WARNING: THIS AUTOMATICALLY GENERATED FILE MAY BE OVERWRITTEN BY SUBSEQUENT SIMULATIONS

*Libraries: 
* Profile Libraries :
* Local Libraries :
* From [PSPICE NETLIST] section of C:\SPB_Data\cdssetup\OrCAD_PSpice/16.6.0/PSpice.ini file:
.lib "nomd.lib" 

*Analysis directives: 
.TRAN  0 10ns 0 
.OPTIONS ADVCONV
.PROBE64 V(alias(*)) I(alias(*)) W(alias(*)) D(alias(*)) NOISE(alias(*)) 
.INC "..\SCHEMATIC1.net" 



**** INCLUDING SCHEMATIC1.net ****
* source NOR GATE USING CMOS TYPE 2
M_M1         N01720 N01806 N01758 N01758 MbreakP           
M_M4         N01764 N01818 0 0 MbreakN           
V_V1         N01720 0 5Vdc
M_M2         N01758 N01818 N01764 N01764 MbreakP           
V_V2         N01806 0  
+PULSE 0 0 0 3 0 0 0
V_V3         N01818 0  
+PULSE 5 5 0 0 0 0 0
M_M3         N01764 N01806 0 0 MbreakN           

**** RESUMING "nor gate.cir" ****
.END

**** 11/19/19 23:08:30 ****** PSpice Lite (October 2012) ****** ID# 10813 ****

 ** Profile: "SCHEMATIC1-nor gate"  [ F:\MAFI\NOR Gate Using CMOS type 2-PSpiceFiles\SCHEMATIC1\nor gate.sim ] 


 ****     MOSFET MODEL PARAMETERS


******************************************************************************




               MbreakP         MbreakN         
               PMOS            NMOS            
       LEVEL    1               1            
           L  100.000000E-06  100.000000E-06 
           W  100.000000E-06  100.000000E-06 
         VTO    0               0            
          KP   20.000000E-06   20.000000E-06 
       GAMMA    0               0            
         PHI     .6              .6          
      LAMBDA    0               0            
          IS   10.000000E-15   10.000000E-15 
          JS    0               0            
          PB     .8              .8          
        PBSW     .8              .8          
          CJ    0               0            
        CJSW    0               0            
        CGSO    0               0            
        CGDO    0               0            
        CGBO    0               0            
         TOX    0               0            
          XJ    0               0            
       UCRIT   10.000000E+03   10.000000E+03 
      DIOMOD    1               1            
         VFB    0               0            
        LETA    0               0            
        WETA    0               0            
          U0    0               0            
        TEMP    0               0            
         VDD    5               5            
       XPART    0               0            


**** 11/19/19 23:08:30 ****** PSpice Lite (October 2012) ****** ID# 10813 ****

 ** Profile: "SCHEMATIC1-nor gate"  [ F:\MAFI\NOR Gate Using CMOS type 2-PSpiceFiles\SCHEMATIC1\nor gate.sim ] 


 ****     INITIAL TRANSIENT SOLUTION       TEMPERATURE =   27.000 DEG C


******************************************************************************



 NODE   VOLTAGE     NODE   VOLTAGE     NODE   VOLTAGE     NODE   VOLTAGE


(N01720)    5.0000 (N01758)    4.3896 (N01764)    3.7720 (N01806)    0.0000     

(N01818)    5.0000 




    VOLTAGE SOURCE CURRENTS
    NAME         CURRENT

    V_V1        -2.349E-04
    V_V2         0.000E+00
    V_V3         0.000E+00

    TOTAL POWER DISSIPATION   1.17E-03  WATTS



          JOB CONCLUDED

**** 11/19/19 23:08:30 ****** PSpice Lite (October 2012) ****** ID# 10813 ****

 ** Profile: "SCHEMATIC1-nor gate"  [ F:\MAFI\NOR Gate Using CMOS type 2-PSpiceFiles\SCHEMATIC1\nor gate.sim ] 


 ****     JOB STATISTICS SUMMARY


******************************************************************************



  Total job time (using Solver 1)   =         .03
